Circuit: * C:\Users\guilherme.gutierrez\Desktop\Temperature sensor\Draft1.asc

Direct Newton iteration failed to find .op point.  (Use ".option noopiter" to skip.)
Starting Gmin stepping
Gmin = 10
Gmin = 1.07374
vernier = 0.5
vernier = 0.25
vernier = 0.125
Gmin = 1.02385
vernier = 0.0625
vernier = 0.03125
vernier = 0.015625
Gmin = 1.01955
vernier = 0.0078125
vernier = 0.00390625
Gmin = 1.0126
vernier = 0.00520833
vernier = 0.00260417
vernier = 0.00130208
Gmin = 1.00833
vernier = 0.00173611
vernier = 0.000868055
Gmin = 1.00614
vernier = 0.00115741
vernier = 0.000578703
vernier = 0.000771604
Gmin = 1.00481
vernier = 0.000578703
vernier = 0.000434027
Gmin = 1.00401
vernier = 0.000578703
vernier = 0.000434027
Gmin = 0
Gmin stepping failed

Starting source stepping with srcstepmethod=0
Source Step = 3.0303%
Source Step = 33.3333%
Source Step = 63.6364%
Source Step = 93.9394%
Source stepping succeeded in finding the operating point.


Date: Mon Jun 20 09:00:17 2022
Total elapsed time: 0.569 seconds.

tnom = 27
temp = 27
method = modified trap
totiter = 7675
traniter = 2088
tranpoints = 1045
accept = 1045
rejected = 0
matrix size = 34
fillins = 48
solver = Normal
Thread vector: 23.1/11.5[3] 4.1/2.4[3] 4.4/3.4[3] 0.5/0.9[1]  2592/500
Matrix Compiler1: 4.56 KB object code size  1.6/0.7/[0.5]
Matrix Compiler2: 4.55 KB object code size  0.9/1.0/[0.5]

